* NGSPICE file created from cntr_example.ext - technology: gf180mcuC

* Black-box entry subcircuit for gf180mcu_fd_sc_mcu7t5v0__fill_1 abstract view
.subckt gf180mcu_fd_sc_mcu7t5v0__fill_1 VDD VSS
.ends

* Black-box entry subcircuit for gf180mcu_fd_sc_mcu7t5v0__fillcap_64 abstract view
.subckt gf180mcu_fd_sc_mcu7t5v0__fillcap_64 VDD VSS
.ends

* Black-box entry subcircuit for gf180mcu_fd_sc_mcu7t5v0__fillcap_4 abstract view
.subckt gf180mcu_fd_sc_mcu7t5v0__fillcap_4 VDD VSS
.ends

* Black-box entry subcircuit for gf180mcu_fd_sc_mcu7t5v0__fillcap_16 abstract view
.subckt gf180mcu_fd_sc_mcu7t5v0__fillcap_16 VDD VSS
.ends

* Black-box entry subcircuit for gf180mcu_fd_sc_mcu7t5v0__filltie abstract view
.subckt gf180mcu_fd_sc_mcu7t5v0__filltie VDD VSS
.ends

* Black-box entry subcircuit for gf180mcu_fd_sc_mcu7t5v0__fillcap_32 abstract view
.subckt gf180mcu_fd_sc_mcu7t5v0__fillcap_32 VDD VSS
.ends

* Black-box entry subcircuit for gf180mcu_fd_sc_mcu7t5v0__fill_2 abstract view
.subckt gf180mcu_fd_sc_mcu7t5v0__fill_2 VDD VSS
.ends

* Black-box entry subcircuit for gf180mcu_fd_sc_mcu7t5v0__antenna abstract view
.subckt gf180mcu_fd_sc_mcu7t5v0__antenna I VDD VSS
.ends

* Black-box entry subcircuit for gf180mcu_fd_sc_mcu7t5v0__endcap abstract view
.subckt gf180mcu_fd_sc_mcu7t5v0__endcap VDD VSS
.ends

* Black-box entry subcircuit for gf180mcu_fd_sc_mcu7t5v0__tiel abstract view
.subckt gf180mcu_fd_sc_mcu7t5v0__tiel ZN VDD VSS
.ends

* Black-box entry subcircuit for gf180mcu_fd_sc_mcu7t5v0__fillcap_8 abstract view
.subckt gf180mcu_fd_sc_mcu7t5v0__fillcap_8 VDD VSS
.ends

* Black-box entry subcircuit for gf180mcu_fd_sc_mcu7t5v0__dffq_1 abstract view
.subckt gf180mcu_fd_sc_mcu7t5v0__dffq_1 D CLK Q VDD VSS
.ends

* Black-box entry subcircuit for gf180mcu_fd_sc_mcu7t5v0__aoi21_1 abstract view
.subckt gf180mcu_fd_sc_mcu7t5v0__aoi21_1 A1 A2 B ZN VDD VSS
.ends

* Black-box entry subcircuit for gf180mcu_fd_sc_mcu7t5v0__oai21_1 abstract view
.subckt gf180mcu_fd_sc_mcu7t5v0__oai21_1 A1 A2 B ZN VDD VSS
.ends

* Black-box entry subcircuit for gf180mcu_fd_sc_mcu7t5v0__buf_1 abstract view
.subckt gf180mcu_fd_sc_mcu7t5v0__buf_1 I Z VDD VSS
.ends

* Black-box entry subcircuit for gf180mcu_fd_sc_mcu7t5v0__nor2_1 abstract view
.subckt gf180mcu_fd_sc_mcu7t5v0__nor2_1 A1 A2 ZN VDD VSS
.ends

* Black-box entry subcircuit for gf180mcu_fd_sc_mcu7t5v0__xor2_1 abstract view
.subckt gf180mcu_fd_sc_mcu7t5v0__xor2_1 A1 A2 Z VDD VSS
.ends

* Black-box entry subcircuit for gf180mcu_fd_sc_mcu7t5v0__clkbuf_16 abstract view
.subckt gf180mcu_fd_sc_mcu7t5v0__clkbuf_16 I Z VDD VSS
.ends

* Black-box entry subcircuit for gf180mcu_fd_sc_mcu7t5v0__clkinv_1 abstract view
.subckt gf180mcu_fd_sc_mcu7t5v0__clkinv_1 I ZN VDD VSS
.ends

* Black-box entry subcircuit for gf180mcu_fd_sc_mcu7t5v0__nand2_1 abstract view
.subckt gf180mcu_fd_sc_mcu7t5v0__nand2_1 A1 A2 ZN VDD VSS
.ends

* Black-box entry subcircuit for gf180mcu_fd_sc_mcu7t5v0__nand3_1 abstract view
.subckt gf180mcu_fd_sc_mcu7t5v0__nand3_1 A1 A2 A3 ZN VDD VSS
.ends

* Black-box entry subcircuit for gf180mcu_fd_sc_mcu7t5v0__clkbuf_1 abstract view
.subckt gf180mcu_fd_sc_mcu7t5v0__clkbuf_1 I Z VDD VSS
.ends

* Black-box entry subcircuit for gf180mcu_fd_sc_mcu7t5v0__clkbuf_3 abstract view
.subckt gf180mcu_fd_sc_mcu7t5v0__clkbuf_3 I Z VDD VSS
.ends

.subckt cntr_example io_out[0] io_out[10] io_out[11] io_out[12] io_out[13] io_out[14]
+ io_out[15] io_out[16] io_out[17] io_out[18] io_out[19] io_out[1] io_out[20] io_out[21]
+ io_out[22] io_out[23] io_out[24] io_out[25] io_out[26] io_out[27] io_out[28] io_out[29]
+ io_out[2] io_out[30] io_out[31] io_out[32] io_out[33] io_out[34] io_out[35] io_out[36]
+ io_out[37] io_out[3] io_out[4] io_out[5] io_out[6] io_out[7] io_out[8] io_out[9]
+ vdd vss wb_clk_i wb_rst_i
XFILLER_95_851 vdd vss gf180mcu_fd_sc_mcu7t5v0__fill_1
XFILLER_82_534 vdd vss gf180mcu_fd_sc_mcu7t5v0__fillcap_64
XFILLER_27_428 vdd vss gf180mcu_fd_sc_mcu7t5v0__fillcap_64
XFILLER_54_247 vdd vss gf180mcu_fd_sc_mcu7t5v0__fill_1
XFILLER_1_1490 vdd vss gf180mcu_fd_sc_mcu7t5v0__fill_1
XFILLER_23_634 vdd vss gf180mcu_fd_sc_mcu7t5v0__fillcap_4
XFILLER_108_1560 vdd vss gf180mcu_fd_sc_mcu7t5v0__fillcap_16
XFILLER_52_1312 vdd vss gf180mcu_fd_sc_mcu7t5v0__fill_1
XFILLER_104_1457 vdd vss gf180mcu_fd_sc_mcu7t5v0__fillcap_64
XFILLER_87_1419 vdd vss gf180mcu_fd_sc_mcu7t5v0__fill_1
XFILLER_123_208 vdd vss gf180mcu_fd_sc_mcu7t5v0__fillcap_4
XFILLER_102_1170 vdd vss gf180mcu_fd_sc_mcu7t5v0__fill_1
XFILLER_11_1064 vdd vss gf180mcu_fd_sc_mcu7t5v0__fill_1
XFILLER_144_591 vdd vss gf180mcu_fd_sc_mcu7t5v0__fillcap_4
XFILLER_117_783 vdd vss gf180mcu_fd_sc_mcu7t5v0__fillcap_64
XFILLER_2_527 vdd vss gf180mcu_fd_sc_mcu7t5v0__fillcap_4
XFILLER_117_66 vdd vss gf180mcu_fd_sc_mcu7t5v0__fillcap_4
XFILLER_105_989 vdd vss gf180mcu_fd_sc_mcu7t5v0__fillcap_4
XFILLER_89_144 vdd vss gf180mcu_fd_sc_mcu7t5v0__fillcap_64
XFILLER_78_818 vdd vss gf180mcu_fd_sc_mcu7t5v0__fillcap_64
XFILLER_137_1277 vdd vss gf180mcu_fd_sc_mcu7t5v0__fill_1
XFILLER_58_531 vdd vss gf180mcu_fd_sc_mcu7t5v0__fill_1
XTAP_3213 vdd vss gf180mcu_fd_sc_mcu7t5v0__filltie
XTAP_3202 vdd vss gf180mcu_fd_sc_mcu7t5v0__filltie
XFILLER_115_1564 vdd vss gf180mcu_fd_sc_mcu7t5v0__fillcap_16
XFILLER_85_350 vdd vss gf180mcu_fd_sc_mcu7t5v0__fillcap_4
XFILLER_19_918 vdd vss gf180mcu_fd_sc_mcu7t5v0__fillcap_4
XTAP_3246 vdd vss gf180mcu_fd_sc_mcu7t5v0__filltie
XTAP_3235 vdd vss gf180mcu_fd_sc_mcu7t5v0__filltie
XTAP_3224 vdd vss gf180mcu_fd_sc_mcu7t5v0__filltie
XTAP_2501 vdd vss gf180mcu_fd_sc_mcu7t5v0__filltie
XTAP_3279 vdd vss gf180mcu_fd_sc_mcu7t5v0__filltie
XTAP_3268 vdd vss gf180mcu_fd_sc_mcu7t5v0__filltie
XTAP_3257 vdd vss gf180mcu_fd_sc_mcu7t5v0__filltie
XTAP_2545 vdd vss gf180mcu_fd_sc_mcu7t5v0__filltie
XTAP_2534 vdd vss gf180mcu_fd_sc_mcu7t5v0__filltie
XTAP_2523 vdd vss gf180mcu_fd_sc_mcu7t5v0__filltie
XTAP_2512 vdd vss gf180mcu_fd_sc_mcu7t5v0__filltie
XFILLER_73_567 vdd vss gf180mcu_fd_sc_mcu7t5v0__fill_1
XTAP_1800 vdd vss gf180mcu_fd_sc_mcu7t5v0__filltie
XTAP_2578 vdd vss gf180mcu_fd_sc_mcu7t5v0__filltie
XTAP_2567 vdd vss gf180mcu_fd_sc_mcu7t5v0__filltie
XTAP_2556 vdd vss gf180mcu_fd_sc_mcu7t5v0__filltie
XTAP_1833 vdd vss gf180mcu_fd_sc_mcu7t5v0__filltie
XTAP_1822 vdd vss gf180mcu_fd_sc_mcu7t5v0__filltie
XTAP_1811 vdd vss gf180mcu_fd_sc_mcu7t5v0__filltie
XTAP_2589 vdd vss gf180mcu_fd_sc_mcu7t5v0__filltie
XTAP_1866 vdd vss gf180mcu_fd_sc_mcu7t5v0__filltie
XTAP_1855 vdd vss gf180mcu_fd_sc_mcu7t5v0__filltie
XTAP_1844 vdd vss gf180mcu_fd_sc_mcu7t5v0__filltie
XFILLER_144_1259 vdd vss gf180mcu_fd_sc_mcu7t5v0__fill_1
XFILLER_144_1237 vdd vss gf180mcu_fd_sc_mcu7t5v0__fillcap_16
XTAP_1899 vdd vss gf180mcu_fd_sc_mcu7t5v0__filltie
XTAP_1888 vdd vss gf180mcu_fd_sc_mcu7t5v0__filltie
XTAP_1877 vdd vss gf180mcu_fd_sc_mcu7t5v0__filltie
XFILLER_13_144 vdd vss gf180mcu_fd_sc_mcu7t5v0__fillcap_64
XFILLER_9_137 vdd vss gf180mcu_fd_sc_mcu7t5v0__fillcap_4
XFILLER_6_811 vdd vss gf180mcu_fd_sc_mcu7t5v0__fillcap_4
XFILLER_115_709 vdd vss gf180mcu_fd_sc_mcu7t5v0__fill_1
XFILLER_5_354 vdd vss gf180mcu_fd_sc_mcu7t5v0__fill_1
XFILLER_9_1419 vdd vss gf180mcu_fd_sc_mcu7t5v0__fill_1
XFILLER_77_851 vdd vss gf180mcu_fd_sc_mcu7t5v0__fill_1
XFILLER_27_1060 vdd vss gf180mcu_fd_sc_mcu7t5v0__fillcap_4
XFILLER_42_1525 vdd vss gf180mcu_fd_sc_mcu7t5v0__fill_1
XFILLER_67_70 vdd vss gf180mcu_fd_sc_mcu7t5v0__fill_1
XFILLER_64_534 vdd vss gf180mcu_fd_sc_mcu7t5v0__fillcap_64
XFILLER_36_247 vdd vss gf180mcu_fd_sc_mcu7t5v0__fill_1
XFILLER_60_740 vdd vss gf180mcu_fd_sc_mcu7t5v0__fillcap_4
XFILLER_71_1209 vdd vss gf180mcu_fd_sc_mcu7t5v0__fillcap_64
XFILLER_80_2 vdd vss gf180mcu_fd_sc_mcu7t5v0__fillcap_32
XFILLER_34_1031 vdd vss gf180mcu_fd_sc_mcu7t5v0__fillcap_64
XFILLER_121_1067 vdd vss gf180mcu_fd_sc_mcu7t5v0__fillcap_64
XFILLER_105_208 vdd vss gf180mcu_fd_sc_mcu7t5v0__fillcap_4
XFILLER_103_1490 vdd vss gf180mcu_fd_sc_mcu7t5v0__fill_1
XFILLER_69_1138 vdd vss gf180mcu_fd_sc_mcu7t5v0__fillcap_64
XFILLER_101_425 vdd vss gf180mcu_fd_sc_mcu7t5v0__fill_1
XFILLER_80_1095 vdd vss gf180mcu_fd_sc_mcu7t5v0__fillcap_4
XFILLER_67_350 vdd vss gf180mcu_fd_sc_mcu7t5v0__fillcap_4
XFILLER_110_1450 vdd vss gf180mcu_fd_sc_mcu7t5v0__fillcap_4
XFILLER_83_854 vdd vss gf180mcu_fd_sc_mcu7t5v0__fillcap_64
XFILLER_55_567 vdd vss gf180mcu_fd_sc_mcu7t5v0__fill_1
XTAP_1107 vdd vss gf180mcu_fd_sc_mcu7t5v0__filltie
XTAP_1118 vdd vss gf180mcu_fd_sc_mcu7t5v0__filltie
XTAP_1129 vdd vss gf180mcu_fd_sc_mcu7t5v0__filltie
XFILLER_58_1521 vdd vss gf180mcu_fd_sc_mcu7t5v0__fillcap_4
XFILLER_58_1576 vdd vss gf180mcu_fd_sc_mcu7t5v0__fillcap_4
XFILLER_50_250 vdd vss gf180mcu_fd_sc_mcu7t5v0__fillcap_64
XFILLER_17_1273 vdd vss gf180mcu_fd_sc_mcu7t5v0__fillcap_4
XFILLER_3_847 vdd vss gf180mcu_fd_sc_mcu7t5v0__fillcap_4
XFILLER_144_75 vdd vss gf180mcu_fd_sc_mcu7t5v0__fillcap_16
XFILLER_144_53 vdd vss gf180mcu_fd_sc_mcu7t5v0__fill_2
XFILLER_24_1244 vdd vss gf180mcu_fd_sc_mcu7t5v0__fillcap_64
XFILLER_59_851 vdd vss gf180mcu_fd_sc_mcu7t5v0__fill_1
XTAP_3021 vdd vss gf180mcu_fd_sc_mcu7t5v0__filltie
XTAP_3010 vdd vss gf180mcu_fd_sc_mcu7t5v0__filltie
XFILLER_98_1312 vdd vss gf180mcu_fd_sc_mcu7t5v0__fill_1
XFILLER_46_534 vdd vss gf180mcu_fd_sc_mcu7t5v0__fillcap_64
XTAP_3054 vdd vss gf180mcu_fd_sc_mcu7t5v0__filltie
XTAP_3043 vdd vss gf180mcu_fd_sc_mcu7t5v0__filltie
XTAP_3032 vdd vss gf180mcu_fd_sc_mcu7t5v0__filltie
XTAP_2320 vdd vss gf180mcu_fd_sc_mcu7t5v0__filltie
XFILLER_18_247 vdd vss gf180mcu_fd_sc_mcu7t5v0__fill_1
XFILLER_37_73 vdd vss gf180mcu_fd_sc_mcu7t5v0__fillcap_64
XFILLER_41_1580 vdd vss gf180mcu_fd_sc_mcu7t5v0__fill_1
XTAP_3098 vdd vss gf180mcu_fd_sc_mcu7t5v0__filltie
XTAP_3087 vdd vss gf180mcu_fd_sc_mcu7t5v0__filltie
XTAP_3076 vdd vss gf180mcu_fd_sc_mcu7t5v0__filltie
XTAP_3065 vdd vss gf180mcu_fd_sc_mcu7t5v0__filltie
XTAP_2353 vdd vss gf180mcu_fd_sc_mcu7t5v0__filltie
XTAP_2342 vdd vss gf180mcu_fd_sc_mcu7t5v0__filltie
XTAP_2331 vdd vss gf180mcu_fd_sc_mcu7t5v0__filltie
XTAP_2386 vdd vss gf180mcu_fd_sc_mcu7t5v0__filltie
XTAP_2375 vdd vss gf180mcu_fd_sc_mcu7t5v0__filltie
XTAP_2364 vdd vss gf180mcu_fd_sc_mcu7t5v0__filltie
XFILLER_2_1095 vdd vss gf180mcu_fd_sc_mcu7t5v0__fillcap_4
XFILLER_42_740 vdd vss gf180mcu_fd_sc_mcu7t5v0__fillcap_4
XTAP_1641 vdd vss gf180mcu_fd_sc_mcu7t5v0__filltie
XTAP_1630 vdd vss gf180mcu_fd_sc_mcu7t5v0__filltie
XTAP_2397 vdd vss gf180mcu_fd_sc_mcu7t5v0__filltie
XFILLER_57_1064 vdd vss gf180mcu_fd_sc_mcu7t5v0__fill_1
XTAP_1652 vdd vss gf180mcu_fd_sc_mcu7t5v0__filltie
XTAP_1663 vdd vss gf180mcu_fd_sc_mcu7t5v0__filltie
XTAP_1674 vdd vss gf180mcu_fd_sc_mcu7t5v0__filltie
XTAP_1685 vdd vss gf180mcu_fd_sc_mcu7t5v0__filltie
XFILLER_30_957 vdd vss gf180mcu_fd_sc_mcu7t5v0__fill_1
XFILLER_41_283 vdd vss gf180mcu_fd_sc_mcu7t5v0__fill_1
XTAP_1696 vdd vss gf180mcu_fd_sc_mcu7t5v0__filltie
XFILLER_35_1351 vdd vss gf180mcu_fd_sc_mcu7t5v0__fillcap_64
XFILLER_128_889 vdd vss gf180mcu_fd_sc_mcu7t5v0__fillcap_64
XFILLER_142_314 vdd vss gf180mcu_fd_sc_mcu7t5v0__fillcap_4
XFILLER_111_712 vdd vss gf180mcu_fd_sc_mcu7t5v0__fillcap_64
XFILLER_64_1024 vdd vss gf180mcu_fd_sc_mcu7t5v0__fillcap_4
XFILLER_96_456 vdd vss gf180mcu_fd_sc_mcu7t5v0__fillcap_4
XFILLER_49_350 vdd vss gf180mcu_fd_sc_mcu7t5v0__fillcap_4
XFILLER_37_567 vdd vss gf180mcu_fd_sc_mcu7t5v0__fill_1
XFILLER_65_854 vdd vss gf180mcu_fd_sc_mcu7t5v0__fillcap_64
XFILLER_92_673 vdd vss gf180mcu_fd_sc_mcu7t5v0__fill_1
XFILLER_75_1131 vdd vss gf180mcu_fd_sc_mcu7t5v0__fillcap_4
XFILLER_32_250 vdd vss gf180mcu_fd_sc_mcu7t5v0__fillcap_64
XFILLER_18_1560 vdd vss gf180mcu_fd_sc_mcu7t5v0__fillcap_16
XFILLER_20_456 vdd vss gf180mcu_fd_sc_mcu7t5v0__fillcap_4
XFILLER_140_1454 vdd vss gf180mcu_fd_sc_mcu7t5v0__fill_1
XFILLER_14_1457 vdd vss gf180mcu_fd_sc_mcu7t5v0__fillcap_64
XFILLER_134_815 vdd vss gf180mcu_fd_sc_mcu7t5v0__fill_1
XFILLER_88_1525 vdd vss gf180mcu_fd_sc_mcu7t5v0__fill_1
XFILLER_12_1170 vdd vss gf180mcu_fd_sc_mcu7t5v0__fill_1
XFILLER_82_1102 vdd vss gf180mcu_fd_sc_mcu7t5v0__fillcap_64
XFILLER_138_1383 vdd vss gf180mcu_fd_sc_mcu7t5v0__fill_1
XFILLER_99_283 vdd vss gf180mcu_fd_sc_mcu7t5v0__fill_1
XFILLER_88_957 vdd vss gf180mcu_fd_sc_mcu7t5v0__fill_1
XFILLER_0_839 vdd vss gf180mcu_fd_sc_mcu7t5v0__fill_1
XFILLER_47_1277 vdd vss gf180mcu_fd_sc_mcu7t5v0__fill_1
XFILLER_114_34 vdd vss gf180mcu_fd_sc_mcu7t5v0__fill_1
XFILLER_64_1580 vdd vss gf180mcu_fd_sc_mcu7t5v0__fill_1
XFILLER_25_1564 vdd vss gf180mcu_fd_sc_mcu7t5v0__fillcap_16
XFILLER_28_534 vdd vss gf180mcu_fd_sc_mcu7t5v0__fillcap_64
XFILLER_82_172 vdd vss gf180mcu_fd_sc_mcu7t5v0__fillcap_4
XFILLER_24_740 vdd vss gf180mcu_fd_sc_mcu7t5v0__fillcap_4
XFILLER_90_37 vdd vss gf180mcu_fd_sc_mcu7t5v0__fillcap_64
XFILLER_70_389 vdd vss gf180mcu_fd_sc_mcu7t5v0__fill_1
XFILLER_23_283 vdd vss gf180mcu_fd_sc_mcu7t5v0__fill_1
XFILLER_51_570 vdd vss gf180mcu_fd_sc_mcu7t5v0__fillcap_64
XFILLER_54_1237 vdd vss gf180mcu_fd_sc_mcu7t5v0__fillcap_4
XFILLER_128_108 vdd vss gf180mcu_fd_sc_mcu7t5v0__fillcap_64
XFILLER_12_957 vdd vss gf180mcu_fd_sc_mcu7t5v0__fill_1
XFILLER_128_2 vdd vss gf180mcu_fd_sc_mcu7t5v0__fillcap_32
XFILLER_124_314 vdd vss gf180mcu_fd_sc_mcu7t5v0__fillcap_4
XFILLER_104_1095 vdd vss gf180mcu_fd_sc_mcu7t5v0__fillcap_4
XFILLER_140_818 vdd vss gf180mcu_fd_sc_mcu7t5v0__fillcap_64
XFILLER_65_1344 vdd vss gf180mcu_fd_sc_mcu7t5v0__fillcap_4
XFILLER_120_531 vdd vss gf180mcu_fd_sc_mcu7t5v0__fill_1
XFILLER_2_176 vdd vss gf180mcu_fd_sc_mcu7t5v0__fill_1
XFILLER_78_456 vdd vss gf180mcu_fd_sc_mcu7t5v0__fillcap_4
XFILLER_4_1102 vdd vss gf180mcu_fd_sc_mcu7t5v0__fillcap_64
XFILLER_47_854 vdd vss gf180mcu_fd_sc_mcu7t5v0__fillcap_64
XFILLER_74_673 vdd vss gf180mcu_fd_sc_mcu7t5v0__fill_1
XFILLER_19_567 vdd vss gf180mcu_fd_sc_mcu7t5v0__fill_1
XFILLER_94_1028 vdd vss gf180mcu_fd_sc_mcu7t5v0__fill_1
XTAP_2161 vdd vss gf180mcu_fd_sc_mcu7t5v0__filltie
XTAP_2150 vdd vss gf180mcu_fd_sc_mcu7t5v0__filltie
XTAP_2194 vdd vss gf180mcu_fd_sc_mcu7t5v0__filltie
XTAP_2183 vdd vss gf180mcu_fd_sc_mcu7t5v0__filltie
XTAP_2172 vdd vss gf180mcu_fd_sc_mcu7t5v0__filltie
XFILLER_72_1315 vdd vss gf180mcu_fd_sc_mcu7t5v0__fillcap_64
XTAP_1460 vdd vss gf180mcu_fd_sc_mcu7t5v0__filltie
XFILLER_14_250 vdd vss gf180mcu_fd_sc_mcu7t5v0__fillcap_64
XTAP_1482 vdd vss gf180mcu_fd_sc_mcu7t5v0__filltie
XTAP_1471 vdd vss gf180mcu_fd_sc_mcu7t5v0__filltie
XTAP_1493 vdd vss gf180mcu_fd_sc_mcu7t5v0__filltie
XFILLER_9_66 vdd vss gf180mcu_fd_sc_mcu7t5v0__fillcap_4
XFILLER_127_141 vdd vss gf180mcu_fd_sc_mcu7t5v0__fill_1
XFILLER_122_1173 vdd vss gf180mcu_fd_sc_mcu7t5v0__fillcap_64
XFILLER_116_815 vdd vss gf180mcu_fd_sc_mcu7t5v0__fill_1
XFILLER_143_634 vdd vss gf180mcu_fd_sc_mcu7t5v0__fillcap_4
XFILLER_13_1490 vdd vss gf180mcu_fd_sc_mcu7t5v0__fill_1
XFILLER_6_460 vdd vss gf180mcu_fd_sc_mcu7t5v0__fill_1
XFILLER_31_1067 vdd vss gf180mcu_fd_sc_mcu7t5v0__fillcap_64
XFILLER_87_1580 vdd vss gf180mcu_fd_sc_mcu7t5v0__fill_1
XFILLER_83_1422 vdd vss gf180mcu_fd_sc_mcu7t5v0__fillcap_64
XFILLER_43_2 vdd vss gf180mcu_fd_sc_mcu7t5v0__fillcap_64
XFILLER_97_776 vdd vss gf180mcu_fd_sc_mcu7t5v0__fillcap_4
XFILLER_133_1280 vdd vss gf180mcu_fd_sc_mcu7t5v0__fillcap_64
XFILLER_93_993 vdd vss gf180mcu_fd_sc_mcu7t5v0__fill_1
XFILLER_20_1450 vdd vss gf180mcu_fd_sc_mcu7t5v0__fillcap_4
XFILLER_64_172 vdd vss gf180mcu_fd_sc_mcu7t5v0__fillcap_4
XFILLER_80_676 vdd vss gf180mcu_fd_sc_mcu7t5v0__fillcap_64
XFILLER_0_1577 vdd vss gf180mcu_fd_sc_mcu7t5v0__fillcap_4
XFILLER_33_570 vdd vss gf180mcu_fd_sc_mcu7t5v0__fillcap_64
XFILLER_52_389 vdd vss gf180mcu_fd_sc_mcu7t5v0__fill_1
XFILLER_55_1557 vdd vss gf180mcu_fd_sc_mcu7t5v0__fillcap_4
XFILLER_139_918 vdd vss gf180mcu_fd_sc_mcu7t5v0__fillcap_4
XFILLER_21_776 vdd vss gf180mcu_fd_sc_mcu7t5v0__fillcap_4
XFILLER_101_1202 vdd vss gf180mcu_fd_sc_mcu7t5v0__fillcap_4
XFILLER_106_314 vdd vss gf180mcu_fd_sc_mcu7t5v0__fillcap_4
XFILLER_133_144 vdd vss gf180mcu_fd_sc_mcu7t5v0__fillcap_64
XFILLER_122_818 vdd vss gf180mcu_fd_sc_mcu7t5v0__fillcap_64
XFILLER_102_531 vdd vss gf180mcu_fd_sc_mcu7t5v0__fill_1
XFILLER_62_1528 vdd vss gf180mcu_fd_sc_mcu7t5v0__fillcap_32
XFILLER_125_66 vdd vss gf180mcu_fd_sc_mcu7t5v0__fillcap_4
XFILLER_87_286 vdd vss gf180mcu_fd_sc_mcu7t5v0__fillcap_64
XFILLER_9_1580 vdd vss gf180mcu_fd_sc_mcu7t5v0__fill_1
XFILLER_5_1422 vdd vss gf180mcu_fd_sc_mcu7t5v0__fillcap_64
XFILLER_60_1241 vdd vss gf180mcu_fd_sc_mcu7t5v0__fill_1
XFILLER_134_1099 vdd vss gf180mcu_fd_sc_mcu7t5v0__fill_1
XFILLER_84_960 vdd vss gf180mcu_fd_sc_mcu7t5v0__fillcap_64
XFILLER_29_854 vdd vss gf180mcu_fd_sc_mcu7t5v0__fillcap_64
XFILLER_112_1386 vdd vss gf180mcu_fd_sc_mcu7t5v0__fillcap_64
XFILLER_56_673 vdd vss gf180mcu_fd_sc_mcu7t5v0__fill_1
XFILLER_95_1348 vdd vss gf180mcu_fd_sc_mcu7t5v0__fill_1
XFILLER_83_492 vdd vss gf180mcu_fd_sc_mcu7t5v0__fillcap_4
XFILLER_58_1170 vdd vss gf180mcu_fd_sc_mcu7t5v0__fill_1
XFILLER_106_1102 vdd vss gf180mcu_fd_sc_mcu7t5v0__fillcap_64
XFILLER_129_428 vdd vss gf180mcu_fd_sc_mcu7t5v0__fillcap_64
XFILLER_8_747 vdd vss gf180mcu_fd_sc_mcu7t5v0__fillcap_64
XFILLER_109_141 vdd vss gf180mcu_fd_sc_mcu7t5v0__fill_1
XFILLER_11_286 vdd vss gf180mcu_fd_sc_mcu7t5v0__fillcap_64
XFILLER_123_1493 vdd vss gf180mcu_fd_sc_mcu7t5v0__fillcap_64
XFILLER_7_279 vdd vss gf180mcu_fd_sc_mcu7t5v0__fillcap_4
XFILLER_125_634 vdd vss gf180mcu_fd_sc_mcu7t5v0__fillcap_4
XFILLER_4_953 vdd vss gf180mcu_fd_sc_mcu7t5v0__fillcap_4
XTAP_507 vdd vss gf180mcu_fd_sc_mcu7t5v0__filltie
XTAP_529 vdd vss gf180mcu_fd_sc_mcu7t5v0__filltie
XTAP_518 vdd vss gf180mcu_fd_sc_mcu7t5v0__filltie
XFILLER_3_496 vdd vss gf180mcu_fd_sc_mcu7t5v0__fill_1
XFILLER_121_851 vdd vss gf180mcu_fd_sc_mcu7t5v0__fill_1
XFILLER_79_776 vdd vss gf180mcu_fd_sc_mcu7t5v0__fillcap_4
XFILLER_93_212 vdd vss gf180mcu_fd_sc_mcu7t5v0__fill_1
XFILLER_75_993 vdd vss gf180mcu_fd_sc_mcu7t5v0__fill_1
XFILLER_75_70 vdd vss gf180mcu_fd_sc_mcu7t5v0__fill_1
XFILLER_46_172 vdd vss gf180mcu_fd_sc_mcu7t5v0__fillcap_4
XFILLER_62_676 vdd vss gf180mcu_fd_sc_mcu7t5v0__fillcap_64
XFILLER_15_570 vdd vss gf180mcu_fd_sc_mcu7t5v0__fillcap_64
XFILLER_34_389 vdd vss gf180mcu_fd_sc_mcu7t5v0__fill_1
XTAP_1290 vdd vss gf180mcu_fd_sc_mcu7t5v0__filltie
XFILLER_50_1454 vdd vss gf180mcu_fd_sc_mcu7t5v0__fill_1
XFILLER_144_943 vdd vss gf180mcu_fd_sc_mcu7t5v0__fill_2
XFILLER_7_780 vdd vss gf180mcu_fd_sc_mcu7t5v0__fill_1
XFILLER_144_987 vdd vss gf180mcu_fd_sc_mcu7t5v0__fillcap_16
XFILLER_115_144 vdd vss gf180mcu_fd_sc_mcu7t5v0__fillcap_64
XFILLER_104_818 vdd vss gf180mcu_fd_sc_mcu7t5v0__fillcap_64
XFILLER_118_1028 vdd vss gf180mcu_fd_sc_mcu7t5v0__fill_1
XFILLER_48_1383 vdd vss gf180mcu_fd_sc_mcu7t5v0__fill_1
XFILLER_131_1206 vdd vss gf180mcu_fd_sc_mcu7t5v0__fill_1
XFILLER_111_350 vdd vss gf180mcu_fd_sc_mcu7t5v0__fillcap_4
XFILLER_69_286 vdd vss gf180mcu_fd_sc_mcu7t5v0__fillcap_64
XFILLER_61_1561 vdd vss gf180mcu_fd_sc_mcu7t5v0__fill_1
XTAP_2919 vdd vss gf180mcu_fd_sc_mcu7t5v0__filltie
XTAP_2908 vdd vss gf180mcu_fd_sc_mcu7t5v0__filltie
XFILLER_66_960 vdd vss gf180mcu_fd_sc_mcu7t5v0__fillcap_64
XFILLER_38_673 vdd vss gf180mcu_fd_sc_mcu7t5v0__fill_1
XFILLER_65_492 vdd vss gf180mcu_fd_sc_mcu7t5v0__fillcap_4
XFILLER_129_1135 vdd vss gf180mcu_fd_sc_mcu7t5v0__fill_1
XFILLER_77_1067 vdd vss gf180mcu_fd_sc_mcu7t5v0__fillcap_64
XFILLER_81_996 vdd vss gf180mcu_fd_sc_mcu7t5v0__fillcap_64
XFILLER_59_1490 vdd vss gf180mcu_fd_sc_mcu7t5v0__fill_1
XFILLER_107_1422 vdd vss gf180mcu_fd_sc_mcu7t5v0__fillcap_64
XFILLER_142_1379 vdd vss gf180mcu_fd_sc_mcu7t5v0__fillcap_4
XFILLER_138_247 vdd vss gf180mcu_fd_sc_mcu7t5v0__fill_1
XFILLER_107_634 vdd vss gf180mcu_fd_sc_mcu7t5v0__fillcap_4
XFILLER_14_1095 vdd vss gf180mcu_fd_sc_mcu7t5v0__fillcap_4
XFILLER_66_1450 vdd vss gf180mcu_fd_sc_mcu7t5v0__fillcap_4
XFILLER_0_422 vdd vss gf180mcu_fd_sc_mcu7t5v0__fillcap_32
XFILLER_103_851 vdd vss gf180mcu_fd_sc_mcu7t5v0__fill_1
XFILLER_75_212 vdd vss gf180mcu_fd_sc_mcu7t5v0__fill_1
XFILLER_1_989 vdd vss gf180mcu_fd_sc_mcu7t5v0__fillcap_4
XFILLER_91_705 vdd vss gf180mcu_fd_sc_mcu7t5v0__fillcap_4
XFILLER_1_1138 vdd vss gf180mcu_fd_sc_mcu7t5v0__fillcap_64
XFILLER_28_172 vdd vss gf180mcu_fd_sc_mcu7t5v0__fillcap_4
XFILLER_57_993 vdd vss gf180mcu_fd_sc_mcu7t5v0__fill_1
XFILLER_45_73 vdd vss gf180mcu_fd_sc_mcu7t5v0__fillcap_64
XFILLER_44_676 vdd vss gf180mcu_fd_sc_mcu7t5v0__fillcap_64
XFILLER_16_389 vdd vss gf180mcu_fd_sc_mcu7t5v0__fill_1
XANTENNA__21__A2 net3 vdd vss gf180mcu_fd_sc_mcu7t5v0__antenna
XFILLER_40_882 vdd vss gf180mcu_fd_sc_mcu7t5v0__fillcap_4
XFILLER_121_1419 vdd vss gf180mcu_fd_sc_mcu7t5v0__fill_1
XFILLER_6_34 vdd vss gf180mcu_fd_sc_mcu7t5v0__fill_1
XFILLER_32_1173 vdd vss gf180mcu_fd_sc_mcu7t5v0__fillcap_64
XFILLER_119_1348 vdd vss gf180mcu_fd_sc_mcu7t5v0__fill_1
XTAP_304 vdd vss gf180mcu_fd_sc_mcu7t5v0__filltie
XTAP_315 vdd vss gf180mcu_fd_sc_mcu7t5v0__filltie
XFILLER_140_456 vdd vss gf180mcu_fd_sc_mcu7t5v0__fillcap_4
XTAP_337 vdd vss gf180mcu_fd_sc_mcu7t5v0__filltie
XTAP_348 vdd vss gf180mcu_fd_sc_mcu7t5v0__filltie
XTAP_326 vdd vss gf180mcu_fd_sc_mcu7t5v0__filltie
XTAP_359 vdd vss gf180mcu_fd_sc_mcu7t5v0__filltie
XFILLER_43_1280 vdd vss gf180mcu_fd_sc_mcu7t5v0__fillcap_64
XFILLER_48_960 vdd vss gf180mcu_fd_sc_mcu7t5v0__fillcap_64
XFILLER_94_598 vdd vss gf180mcu_fd_sc_mcu7t5v0__fillcap_4
XFILLER_81_215 vdd vss gf180mcu_fd_sc_mcu7t5v0__fillcap_64
XFILLER_47_492 vdd vss gf180mcu_fd_sc_mcu7t5v0__fillcap_4
XFILLER_126_1308 vdd vss gf180mcu_fd_sc_mcu7t5v0__fillcap_4
XFILLER_50_602 vdd vss gf180mcu_fd_sc_mcu7t5v0__fill_1
XFILLER_63_996 vdd vss gf180mcu_fd_sc_mcu7t5v0__fillcap_64
XANTENNA__12__A2 net6 vdd vss gf180mcu_fd_sc_mcu7t5v0__antenna
XFILLER_30_392 vdd vss gf180mcu_fd_sc_mcu7t5v0__fillcap_64
XFILLER_11_1202 vdd vss gf180mcu_fd_sc_mcu7t5v0__fillcap_4
XFILLER_137_1415 vdd vss gf180mcu_fd_sc_mcu7t5v0__fillcap_4
XFILLER_132_957 vdd vss gf180mcu_fd_sc_mcu7t5v0__fill_1
XFILLER_1_208 vdd vss gf180mcu_fd_sc_mcu7t5v0__fillcap_4
XFILLER_83_1060 vdd vss gf180mcu_fd_sc_mcu7t5v0__fillcap_4
XFILLER_98_882 vdd vss gf180mcu_fd_sc_mcu7t5v0__fillcap_4
XTAP_860 vdd vss gf180mcu_fd_sc_mcu7t5v0__filltie
XTAP_871 vdd vss gf180mcu_fd_sc_mcu7t5v0__filltie
XTAP_882 vdd vss gf180mcu_fd_sc_mcu7t5v0__filltie
XTAP_893 vdd vss gf180mcu_fd_sc_mcu7t5v0__filltie
XFILLER_57_212 vdd vss gf180mcu_fd_sc_mcu7t5v0__fill_1
XTAP_3439 vdd vss gf180mcu_fd_sc_mcu7t5v0__filltie
XTAP_3428 vdd vss gf180mcu_fd_sc_mcu7t5v0__filltie
XTAP_3417 vdd vss gf180mcu_fd_sc_mcu7t5v0__filltie
XTAP_3406 vdd vss gf180mcu_fd_sc_mcu7t5v0__filltie
XFILLER_73_705 vdd vss gf180mcu_fd_sc_mcu7t5v0__fillcap_4
XFILLER_44_1099 vdd vss gf180mcu_fd_sc_mcu7t5v0__fill_1
XFILLER_122_34 vdd vss gf180mcu_fd_sc_mcu7t5v0__fill_1
XTAP_2727 vdd vss gf180mcu_fd_sc_mcu7t5v0__filltie
XTAP_2716 vdd vss gf180mcu_fd_sc_mcu7t5v0__filltie
XTAP_2705 vdd vss gf180mcu_fd_sc_mcu7t5v0__filltie
XFILLER_22_1386 vdd vss gf180mcu_fd_sc_mcu7t5v0__fillcap_64
XFILLER_39_993 vdd vss gf180mcu_fd_sc_mcu7t5v0__fill_1
XTAP_2749 vdd vss gf180mcu_fd_sc_mcu7t5v0__filltie
XTAP_2738 vdd vss gf180mcu_fd_sc_mcu7t5v0__filltie
XFILLER_96_1454 vdd vss gf180mcu_fd_sc_mcu7t5v0__fill_1
XFILLER_26_676 vdd vss gf180mcu_fd_sc_mcu7t5v0__fillcap_64
XFILLER_40_101 vdd vss gf180mcu_fd_sc_mcu7t5v0__fillcap_4
XFILLER_90_1031 vdd vss gf180mcu_fd_sc_mcu7t5v0__fillcap_64
XFILLER_16_1102 vdd vss gf180mcu_fd_sc_mcu7t5v0__fillcap_64
XFILLER_139_567 vdd vss gf180mcu_fd_sc_mcu7t5v0__fill_1
XFILLER_22_882 vdd vss gf180mcu_fd_sc_mcu7t5v0__fillcap_4
XFILLER_103_1138 vdd vss gf180mcu_fd_sc_mcu7t5v0__fillcap_64
XFILLER_110_2 vdd vss gf180mcu_fd_sc_mcu7t5v0__fillcap_32
XFILLER_33_1493 vdd vss gf180mcu_fd_sc_mcu7t5v0__fillcap_64
XFILLER_134_250 vdd vss gf180mcu_fd_sc_mcu7t5v0__fill_1
XFILLER_122_456 vdd vss gf180mcu_fd_sc_mcu7t5v0__fillcap_4
XFILLER_88_392 vdd vss gf180mcu_fd_sc_mcu7t5v0__fillcap_64
XFILLER_62_1166 vdd vss gf180mcu_fd_sc_mcu7t5v0__fillcap_4
XFILLER_76_598 vdd vss gf180mcu_fd_sc_mcu7t5v0__fillcap_4
XFILLER_5_1060 vdd vss gf180mcu_fd_sc_mcu7t5v0__fillcap_4
XFILLER_63_215 vdd vss gf180mcu_fd_sc_mcu7t5v0__fillcap_64
XFILLER_29_492 vdd vss gf180mcu_fd_sc_mcu7t5v0__fillcap_4
XFILLER_32_602 vdd vss gf180mcu_fd_sc_mcu7t5v0__fill_1
XFILLER_45_996 vdd vss gf180mcu_fd_sc_mcu7t5v0__fillcap_64
XPHY_170 vdd vss gf180mcu_fd_sc_mcu7t5v0__endcap
XFILLER_73_1273 vdd vss gf180mcu_fd_sc_mcu7t5v0__fillcap_4
XPHY_192 vdd vss gf180mcu_fd_sc_mcu7t5v0__endcap
XPHY_181 vdd vss gf180mcu_fd_sc_mcu7t5v0__endcap
XFILLER_12_392 vdd vss gf180mcu_fd_sc_mcu7t5v0__fillcap_64
XFILLER_8_385 vdd vss gf180mcu_fd_sc_mcu7t5v0__fillcap_4
XFILLER_126_740 vdd vss gf180mcu_fd_sc_mcu7t5v0__fillcap_4
XFILLER_125_283 vdd vss gf180mcu_fd_sc_mcu7t5v0__fill_1
XFILLER_98_101 vdd vss gf180mcu_fd_sc_mcu7t5v0__fillcap_4
XFILLER_114_957 vdd vss gf180mcu_fd_sc_mcu7t5v0__fill_1
XFILLER_28_1028 vdd vss gf180mcu_fd_sc_mcu7t5v0__fill_1
XFILLER_141_776 vdd vss gf180mcu_fd_sc_mcu7t5v0__fillcap_4
XFILLER_86_318 vdd vss gf180mcu_fd_sc_mcu7t5v0__fill_1
XFILLER_80_1244 vdd vss gf180mcu_fd_sc_mcu7t5v0__fillcap_64
XFILLER_132_1312 vdd vss gf180mcu_fd_sc_mcu7t5v0__fill_1
XFILLER_39_212 vdd vss gf180mcu_fd_sc_mcu7t5v0__fill_1
XFILLER_41_1206 vdd vss gf180mcu_fd_sc_mcu7t5v0__fill_1
XFILLER_55_705 vdd vss gf180mcu_fd_sc_mcu7t5v0__fillcap_4
XFILLER_78_1173 vdd vss gf180mcu_fd_sc_mcu7t5v0__fillcap_64
XFILLER_39_1135 vdd vss gf180mcu_fd_sc_mcu7t5v0__fill_1
XFILLER_51_922 vdd vss gf180mcu_fd_sc_mcu7t5v0__fill_1
XFILLER_22_101 vdd vss gf180mcu_fd_sc_mcu7t5v0__fillcap_4
XFILLER_91_1351 vdd vss gf180mcu_fd_sc_mcu7t5v0__fillcap_64
XFILLER_17_1422 vdd vss gf180mcu_fd_sc_mcu7t5v0__fillcap_64
XFILLER_10_318 vdd vss gf180mcu_fd_sc_mcu7t5v0__fill_1
XFILLER_52_1379 vdd vss gf180mcu_fd_sc_mcu7t5v0__fillcap_4
XFILLER_89_1280 vdd vss gf180mcu_fd_sc_mcu7t5v0__fillcap_64
XFILLER_116_250 vdd vss gf180mcu_fd_sc_mcu7t5v0__fillcap_64
XFILLER_104_456 vdd vss gf180mcu_fd_sc_mcu7t5v0__fillcap_4
XFILLER_131_286 vdd vss gf180mcu_fd_sc_mcu7t5v0__fillcap_64
XFILLER_63_1486 vdd vss gf180mcu_fd_sc_mcu7t5v0__fillcap_4
XFILLER_133_66 vdd vss gf180mcu_fd_sc_mcu7t5v0__fillcap_4
XTAP_3203 vdd vss gf180mcu_fd_sc_mcu7t5v0__filltie
XTAP_690 vdd vss gf180mcu_fd_sc_mcu7t5v0__filltie
XTAP_3247 vdd vss gf180mcu_fd_sc_mcu7t5v0__filltie
XTAP_3236 vdd vss gf180mcu_fd_sc_mcu7t5v0__filltie
XTAP_3225 vdd vss gf180mcu_fd_sc_mcu7t5v0__filltie
XTAP_3214 vdd vss gf180mcu_fd_sc_mcu7t5v0__filltie
XFILLER_100_673 vdd vss gf180mcu_fd_sc_mcu7t5v0__fill_1
XTAP_2502 vdd vss gf180mcu_fd_sc_mcu7t5v0__filltie
XFILLER_45_215 vdd vss gf180mcu_fd_sc_mcu7t5v0__fillcap_64
XFILLER_58_598 vdd vss gf180mcu_fd_sc_mcu7t5v0__fillcap_4
XTAP_3269 vdd vss gf180mcu_fd_sc_mcu7t5v0__filltie
XTAP_3258 vdd vss gf180mcu_fd_sc_mcu7t5v0__filltie
XTAP_2535 vdd vss gf180mcu_fd_sc_mcu7t5v0__filltie
XTAP_2524 vdd vss gf180mcu_fd_sc_mcu7t5v0__filltie
XTAP_2513 vdd vss gf180mcu_fd_sc_mcu7t5v0__filltie
XFILLER_2_1244 vdd vss gf180mcu_fd_sc_mcu7t5v0__fillcap_64
XFILLER_57_1202 vdd vss gf180mcu_fd_sc_mcu7t5v0__fillcap_4
XTAP_2579 vdd vss gf180mcu_fd_sc_mcu7t5v0__filltie
XTAP_2568 vdd vss gf180mcu_fd_sc_mcu7t5v0__filltie
XTAP_2557 vdd vss gf180mcu_fd_sc_mcu7t5v0__filltie
XTAP_2546 vdd vss gf180mcu_fd_sc_mcu7t5v0__filltie
XTAP_1834 vdd vss gf180mcu_fd_sc_mcu7t5v0__filltie
XTAP_1823 vdd vss gf180mcu_fd_sc_mcu7t5v0__filltie
XTAP_1801 vdd vss gf180mcu_fd_sc_mcu7t5v0__filltie
XTAP_1812 vdd vss gf180mcu_fd_sc_mcu7t5v0__filltie
XFILLER_14_602 vdd vss gf180mcu_fd_sc_mcu7t5v0__fill_1
XFILLER_27_996 vdd vss gf180mcu_fd_sc_mcu7t5v0__fillcap_64
XTAP_1867 vdd vss gf180mcu_fd_sc_mcu7t5v0__filltie
XTAP_1856 vdd vss gf180mcu_fd_sc_mcu7t5v0__filltie
XTAP_1845 vdd vss gf180mcu_fd_sc_mcu7t5v0__filltie
XFILLER_41_421 vdd vss gf180mcu_fd_sc_mcu7t5v0__fillcap_4
XFILLER_144_1227 vdd vss gf180mcu_fd_sc_mcu7t5v0__fillcap_4
XFILLER_74_1560 vdd vss gf180mcu_fd_sc_mcu7t5v0__fillcap_16
XTAP_1889 vdd vss gf180mcu_fd_sc_mcu7t5v0__filltie
XTAP_1878 vdd vss gf180mcu_fd_sc_mcu7t5v0__filltie
XFILLER_107_1060 vdd vss gf180mcu_fd_sc_mcu7t5v0__fillcap_4
XFILLER_122_1525 vdd vss gf180mcu_fd_sc_mcu7t5v0__fill_1
XFILLER_70_1457 vdd vss gf180mcu_fd_sc_mcu7t5v0__fillcap_64
XFILLER_31_1419 vdd vss gf180mcu_fd_sc_mcu7t5v0__fill_1
XFILLER_108_740 vdd vss gf180mcu_fd_sc_mcu7t5v0__fillcap_4
XFILLER_135_570 vdd vss gf180mcu_fd_sc_mcu7t5v0__fillcap_64
XFILLER_6_889 vdd vss gf180mcu_fd_sc_mcu7t5v0__fillcap_64
XFILLER_107_283 vdd vss gf180mcu_fd_sc_mcu7t5v0__fill_1
XFILLER_68_1386 vdd vss gf180mcu_fd_sc_mcu7t5v0__fillcap_64
XFILLER_29_1348 vdd vss gf180mcu_fd_sc_mcu7t5v0__fill_1
XFILLER_123_776 vdd vss gf180mcu_fd_sc_mcu7t5v0__fillcap_4
XFILLER_96_605 vdd vss gf180mcu_fd_sc_mcu7t5v0__fillcap_64
XFILLER_68_318 vdd vss gf180mcu_fd_sc_mcu7t5v0__fill_1
XFILLER_95_137 vdd vss gf180mcu_fd_sc_mcu7t5v0__fillcap_4
XFILLER_81_1564 vdd vss gf180mcu_fd_sc_mcu7t5v0__fillcap_16
XFILLER_114_1031 vdd vss gf180mcu_fd_sc_mcu7t5v0__fillcap_64
XFILLER_92_811 vdd vss gf180mcu_fd_sc_mcu7t5v0__fillcap_4
XFILLER_37_705 vdd vss gf180mcu_fd_sc_mcu7t5v0__fillcap_4
XFILLER_91_354 vdd vss gf180mcu_fd_sc_mcu7t5v0__fill_1
XFILLER_83_70 vdd vss gf180mcu_fd_sc_mcu7t5v0__fill_1
XFILLER_79_1493 vdd vss gf180mcu_fd_sc_mcu7t5v0__fillcap_64
XFILLER_33_922 vdd vss gf180mcu_fd_sc_mcu7t5v0__fill_1
XFILLER_36_1308 vdd vss gf180mcu_fd_sc_mcu7t5v0__fillcap_4
XFILLER_20_605 vdd vss gf180mcu_fd_sc_mcu7t5v0__fillcap_64
XFILLER_73_2 vdd vss gf180mcu_fd_sc_mcu7t5v0__fillcap_64
XFILLER_138_1521 vdd vss gf180mcu_fd_sc_mcu7t5v0__fillcap_4
XFILLER_99_421 vdd vss gf180mcu_fd_sc_mcu7t5v0__fillcap_4
XFILLER_47_1415 vdd vss gf180mcu_fd_sc_mcu7t5v0__fillcap_4
XFILLER_138_1576 vdd vss gf180mcu_fd_sc_mcu7t5v0__fillcap_4
XFILLER_113_286 vdd vss gf180mcu_fd_sc_mcu7t5v0__fillcap_64
XFILLER_87_638 vdd vss gf180mcu_fd_sc_mcu7t5v0__fill_1
XFILLER_110_960 vdd vss gf180mcu_fd_sc_mcu7t5v0__fillcap_64
XFILLER_27_215 vdd vss gf180mcu_fd_sc_mcu7t5v0__fillcap_64
XFILLER_82_321 vdd vss gf180mcu_fd_sc_mcu7t5v0__fillcap_64
XFILLER_3_1564 vdd vss gf180mcu_fd_sc_mcu7t5v0__fillcap_16
XFILLER_70_527 vdd vss gf180mcu_fd_sc_mcu7t5v0__fillcap_4
XTAP_1108 vdd vss gf180mcu_fd_sc_mcu7t5v0__filltie
XTAP_1119 vdd vss gf180mcu_fd_sc_mcu7t5v0__filltie
XFILLER_23_421 vdd vss gf180mcu_fd_sc_mcu7t5v0__fillcap_4
XFILLER_11_638 vdd vss gf180mcu_fd_sc_mcu7t5v0__fill_1