*SPEF "ieee 1481-1999"
*DESIGN "cntr_example"
*DATE "11:11:11 Fri 11 11, 1111"
*VENDOR "OpenRCX"
*PROGRAM "Parallel Extraction"
*VERSION "1.0"
*DESIGN_FLOW "NAME_SCOPE LOCAL" "PIN_CAP NONE"
*DIVIDER /
*DELIMITER :
*BUS_DELIMITER []
*T_UNIT 1 NS
*C_UNIT 1 PF
*R_UNIT 1 OHM
*L_UNIT 1 HENRY

*NAME_MAP
*1 io_out[0]
*2 net13
*3 net14
*4 net15
*5 net16
*6 net17
*7 net18
*8 net19
*9 net20
*10 net21
*11 net22
*12 io_out[1]
*13 net23
*14 net24
*15 net25
*16 net26
*17 net27
*18 net28
*19 net29
*20 net30
*21 net31
*22 net32
*23 io_out[2]
*24 net33
*25 net34
*26 net35
*27 net36
*28 net37
*29 net38
*30 net39
*31 net40
*32 io_out[3]
*33 net7
*34 net8
*35 net9
*36 net10
*37 net11
*38 net12
*41 wb_clk_i
*42 wb_rst_i
*43 _00_
*44 _01_
*45 _02_
*46 _03_
*47 _04_
*48 _05_
*49 _06_
*50 _07_
*51 _08_
*52 _09_
*53 _10_
*54 clknet_0_wb_clk_i
*55 clknet_1_0__leaf_wb_clk_i
*56 clknet_1_1__leaf_wb_clk_i
*57 net1
*58 net2
*59 net3
*60 net4
*61 net5
*62 net6
*63 ANTENNA__11__I
*64 ANTENNA__12__A2
*65 ANTENNA__12__B
*66 ANTENNA__13__A1
*67 ANTENNA__13__A2
*68 ANTENNA__13__A3
*69 ANTENNA__14__A1
*70 ANTENNA__16__I
*71 ANTENNA__17__A1
*72 ANTENNA__20__A2
*73 ANTENNA__20__B
*74 ANTENNA__21__A2
*75 ANTENNA__22__D
*76 ANTENNA__23__D
*77 ANTENNA__24__D
*78 ANTENNA__25__D
*79 ANTENNA_clkbuf_0_wb_clk_i_I
*80 ANTENNA_fanout6_I
*81 ANTENNA_input1_I
*82 ANTENNA_output2_I
*83 ANTENNA_output3_I
*84 ANTENNA_output4_I
*85 ANTENNA_output5_I
*86 FILLER_0_1014
*87 FILLER_0_1017
*88 FILLER_0_104
*89 FILLER_0_1049
*90 FILLER_0_1052
*91 FILLER_0_107
*92 FILLER_0_1084
*93 FILLER_0_1087
*94 FILLER_0_1119
*95 FILLER_0_1122
*96 FILLER_0_1154
*97 FILLER_0_1157
*98 FILLER_0_1173
*99 FILLER_0_1181
*100 FILLER_0_1185
*101 FILLER_0_1189
*102 FILLER_0_1192
*103 FILLER_0_1199
*104 FILLER_0_1215
*105 FILLER_0_1223
*106 FILLER_0_1227
*107 FILLER_0_1259
*108 FILLER_0_1262
*109 FILLER_0_1294
*110 FILLER_0_1297
*111 FILLER_0_1329
*112 FILLER_0_1332
*113 FILLER_0_1364
*114 FILLER_0_1367
*115 FILLER_0_139
*116 FILLER_0_1399
*117 FILLER_0_1402
*118 FILLER_0_142
*119 FILLER_0_1434
*120 FILLER_0_1437
*121 FILLER_0_1469
*122 FILLER_0_1472
*123 FILLER_0_1504
*124 FILLER_0_1507
*125 FILLER_0_1539
*126 FILLER_0_1542
*127 FILLER_0_1574
*128 FILLER_0_1577
*129 FILLER_0_174
*130 FILLER_0_177
*131 FILLER_0_2
*132 FILLER_0_209
*133 FILLER_0_212
*134 FILLER_0_244
*135 FILLER_0_247
*136 FILLER_0_279
*137 FILLER_0_282
*138 FILLER_0_314
*139 FILLER_0_317
*140 FILLER_0_34
*141 FILLER_0_349
*142 FILLER_0_352
*143 FILLER_0_37
*144 FILLER_0_384
*145 FILLER_0_387
*146 FILLER_0_419
*147 FILLER_0_422
*148 FILLER_0_454
*149 FILLER_0_457
*150 FILLER_0_489
*151 FILLER_0_492
*152 FILLER_0_524
*153 FILLER_0_527
*154 FILLER_0_559
*155 FILLER_0_562
*156 FILLER_0_594
*157 FILLER_0_597
*158 FILLER_0_629
*159 FILLER_0_632
*160 FILLER_0_664
*161 FILLER_0_667
*162 FILLER_0_69
*163 FILLER_0_699
*164 FILLER_0_702
*165 FILLER_0_72
*166 FILLER_0_734
*167 FILLER_0_737
*168 FILLER_0_769
*169 FILLER_0_772
*170 FILLER_0_804
*171 FILLER_0_807
*172 FILLER_0_839
*173 FILLER_0_842
*174 FILLER_0_874
*175 FILLER_0_877
*176 FILLER_0_909
*177 FILLER_0_912
*178 FILLER_0_944
*179 FILLER_0_947
*180 FILLER_0_979
*181 FILLER_0_982
*182 FILLER_100_101
*183 FILLER_100_1024
*184 FILLER_100_1028
*185 FILLER_100_1031
*186 FILLER_100_105
*187 FILLER_100_108
*188 FILLER_100_1095
*189 FILLER_100_1099
*190 FILLER_100_1102
*191 FILLER_100_1166
*192 FILLER_100_1170
*193 FILLER_100_1173
*194 FILLER_100_1237
*195 FILLER_100_1241
*196 FILLER_100_1244
*197 FILLER_100_1308
*198 FILLER_100_1312
*199 FILLER_100_1315
*200 FILLER_100_1379
*201 FILLER_100_1383
*202 FILLER_100_1386
*203 FILLER_100_1450
*204 FILLER_100_1454
*205 FILLER_100_1457
*206 FILLER_100_1521
*207 FILLER_100_1525
*208 FILLER_100_1528
*209 FILLER_100_1560
*210 FILLER_100_1576
*211 FILLER_100_1580
*212 FILLER_100_172
*213 FILLER_100_176
*214 FILLER_100_179
*215 FILLER_100_2
*216 FILLER_100_243
*217 FILLER_100_247
*218 FILLER_100_250
*219 FILLER_100_314
*220 FILLER_100_318
*221 FILLER_100_321
*222 FILLER_100_34
*223 FILLER_100_37
*224 FILLER_100_385
*225 FILLER_100_389
*226 FILLER_100_392
*227 FILLER_100_456
*228 FILLER_100_460
*229 FILLER_100_463
*230 FILLER_100_527
*231 FILLER_100_531
*232 FILLER_100_534
*233 FILLER_100_598
*234 FILLER_100_602
*235 FILLER_100_605
*236 FILLER_100_669
*237 FILLER_100_673
*238 FILLER_100_676
*239 FILLER_100_740
*240 FILLER_100_744
*241 FILLER_100_747
*242 FILLER_100_811
*243 FILLER_100_815
*244 FILLER_100_818
*245 FILLER_100_882
*246 FILLER_100_886
*247 FILLER_100_889
*248 FILLER_100_953
*249 FILLER_100_957
*250 FILLER_100_960
*251 FILLER_101_1060
*252 FILLER_101_1064
*253 FILLER_101_1067
*254 FILLER_101_1131
*255 FILLER_101_1135
*256 FILLER_101_1138
*257 FILLER_101_1202
*258 FILLER_101_1206
*259 FILLER_101_1209
*260 FILLER_101_1273
*261 FILLER_101_1277
*262 FILLER_101_1280
*263 FILLER_101_1344
*264 FILLER_101_1348
*265 FILLER_101_1351
*266 FILLER_101_137
*267 FILLER_101_141
*268 FILLER_101_1415
*269 FILLER_101_1419
*270 FILLER_101_1422
*271 FILLER_101_144
*272 FILLER_101_1486
*273 FILLER_101_1490
*274 FILLER_101_1493
*275 FILLER_101_1557
*276 FILLER_101_1561
*277 FILLER_101_1564
*278 FILLER_101_1580
*279 FILLER_101_2
*280 FILLER_101_208
*281 FILLER_101_212
*282 FILLER_101_215
*283 FILLER_101_279
*284 FILLER_101_283
*285 FILLER_101_286
*286 FILLER_101_350
*287 FILLER_101_354
*288 FILLER_101_357
*289 FILLER_101_421
*290 FILLER_101_425
*291 FILLER_101_428
*292 FILLER_101_492
*293 FILLER_101_496
*294 FILLER_101_499
*295 FILLER_101_563
*296 FILLER_101_567
*297 FILLER_101_570
*298 FILLER_101_634
*299 FILLER_101_638
*300 FILLER_101_641
*301 FILLER_101_66
*302 FILLER_101_70
*303 FILLER_101_705
*304 FILLER_101_709
*305 FILLER_101_712
*306 FILLER_101_73
*307 FILLER_101_776
*308 FILLER_101_780
*309 FILLER_101_783
*310 FILLER_101_847
*311 FILLER_101_851
*312 FILLER_101_854
*313 FILLER_101_918
*314 FILLER_101_922
*315 FILLER_101_925
*316 FILLER_101_989
*317 FILLER_101_993
*318 FILLER_101_996
*319 FILLER_102_101
*320 FILLER_102_1024
*321 FILLER_102_1028
*322 FILLER_102_1031
*323 FILLER_102_105
*324 FILLER_102_108
*325 FILLER_102_1095
*326 FILLER_102_1099
*327 FILLER_102_1102
*328 FILLER_102_1166
*329 FILLER_102_1170
*330 FILLER_102_1173
*331 FILLER_102_1237
*332 FILLER_102_1241
*333 FILLER_102_1244
*334 FILLER_102_1308
*335 FILLER_102_1312
*336 FILLER_102_1315
*337 FILLER_102_1379
*338 FILLER_102_1383
*339 FILLER_102_1386
*340 FILLER_102_1450
*341 FILLER_102_1454
*342 FILLER_102_1457
*343 FILLER_102_1521
*344 FILLER_102_1525
*345 FILLER_102_1528
*346 FILLER_102_1560
*347 FILLER_102_1576
*348 FILLER_102_1580
*349 FILLER_102_172
*350 FILLER_102_176
*351 FILLER_102_179
*352 FILLER_102_2
*353 FILLER_102_243
*354 FILLER_102_247
*355 FILLER_102_250
*356 FILLER_102_314
*357 FILLER_102_318
*358 FILLER_102_321
*359 FILLER_102_34
*360 FILLER_102_37
*361 FILLER_102_385
*362 FILLER_102_389
*363 FILLER_102_392
*364 FILLER_102_456
*365 FILLER_102_460
*366 FILLER_102_463
*367 FILLER_102_527
*368 FILLER_102_531
*369 FILLER_102_534
*370 FILLER_102_598
*371 FILLER_102_602
*372 FILLER_102_605
*373 FILLER_102_669
*374 FILLER_102_673
*375 FILLER_102_676
*376 FILLER_102_740
*377 FILLER_102_744
*378 FILLER_102_747
*379 FILLER_102_811
*380 FILLER_102_815
*381 FILLER_102_818
*382 FILLER_102_882
*383 FILLER_102_886
*384 FILLER_102_889
*385 FILLER_102_953
*386 FILLER_102_957
*387 FILLER_102_960
*388 FILLER_103_1060
*389 FILLER_103_1064
*390 FILLER_103_1067
*391 FILLER_103_1131
*392 FILLER_103_1135
*393 FILLER_103_1138
*394 FILLER_103_1202
*395 FILLER_103_1206
*396 FILLER_103_1209
*397 FILLER_103_1273
*398 FILLER_103_1277
*399 FILLER_103_1280
*400 FILLER_103_1344
*401 FILLER_103_1348
*402 FILLER_103_1351
*403 FILLER_103_137
*404 FILLER_103_141
*405 FILLER_103_1415
*406 FILLER_103_1419
*407 FILLER_103_1422
*408 FILLER_103_144
*409 FILLER_103_1486
*410 FILLER_103_1490
*411 FILLER_103_1493
*412 FILLER_103_1557
*413 FILLER_103_1561
*414 FILLER_103_1564
*415 FILLER_103_1580
*416 FILLER_103_2
*417 FILLER_103_208
*418 FILLER_103_212
*419 FILLER_103_215
*420 FILLER_103_279
*421 FILLER_103_283
*422 FILLER_103_286
*423 FILLER_103_350
*424 FILLER_103_354
*425 FILLER_103_357
*426 FILLER_103_421
*427 FILLER_103_425
*428 FILLER_103_428
*429 FILLER_103_492
*430 FILLER_103_496
*431 FILLER_103_499
*432 FILLER_103_563
*433 FILLER_103_567
*434 FILLER_103_570
*435 FILLER_103_634
*436 FILLER_103_638
*437 FILLER_103_641
*438 FILLER_103_66
*439 FILLER_103_70
*440 FILLER_103_705
*441 FILLER_103_709
*442 FILLER_103_712
*443 FILLER_103_73
*444 FILLER_103_776
*445 FILLER_103_780
*446 FILLER_103_783
*447 FILLER_103_847
*448 FILLER_103_851
*449 FILLER_103_854
*450 FILLER_103_918
*451 FILLER_103_922
*452 FILLER_103_925
*453 FILLER_103_989
*454 FILLER_103_993
*455 FILLER_103_996
*456 FILLER_104_101
*457 FILLER_104_1024
*458 FILLER_104_1028
*459 FILLER_104_1031
*460 FILLER_104_105
*461 FILLER_104_108
*462 FILLER_104_1095
*463 FILLER_104_1099
*464 FILLER_104_1102
*465 FILLER_104_1166
*466 FILLER_104_1170
*467 FILLER_104_1173
*468 FILLER_104_1237
*469 FILLER_104_1241
*470 FILLER_104_1244
*471 FILLER_104_1308
*472 FILLER_104_1312
*473 FILLER_104_1315
*474 FILLER_104_1379
*475 FILLER_104_1383
*476 FILLER_104_1386
*477 FILLER_104_1450
*478 FILLER_104_1454
*479 FILLER_104_1457
*480 FILLER_104_1521
*481 FILLER_104_1525
*482 FILLER_104_1528
*483 FILLER_104_1560
*484 FILLER_104_1576
*485 FILLER_104_1580
*486 FILLER_104_172
*487 FILLER_104_176
*488 FILLER_104_179
*489 FILLER_104_2
*490 FILLER_104_243
*491 FILLER_104_247
*492 FILLER_104_250
*493 FILLER_104_314
*494 FILLER_104_318
*495 FILLER_104_321
*496 FILLER_104_34
*497 FILLER_104_37
*498 FILLER_104_385
*499 FILLER_104_389
*500 FILLER_104_392
*501 FILLER_104_456
*502 FILLER_104_460
*503 FILLER_104_463
*504 FILLER_104_527
*505 FILLER_104_531
*506 FILLER_104_534
*507 FILLER_104_598
*508 FILLER_104_602
*509 FILLER_104_605
*510 FILLER_104_669
*511 FILLER_104_673
*512 FILLER_104_676
*513 FILLER_104_740
*514 FILLER_104_744
*515 FILLER_104_747
*516 FILLER_104_811
*517 FILLER_104_815
*518 FILLER_104_818
*519 FILLER_104_882
*520 FILLER_104_886
*521 FILLER_104_889
*522 FILLER_104_953
*523 FILLER_104_957
*524 FILLER_104_960
*525 FILLER_105_1060
*526 FILLER_105_1064
*527 FILLER_105_1067
*528 FILLER_105_1131
*529 FILLER_105_1135
*530 FILLER_105_1138
*531 FILLER_105_1202
*532 FILLER_105_1206
*533 FILLER_105_1209
*534 FILLER_105_1273
*535 FILLER_105_1277
*536 FILLER_105_1280
*537 FILLER_105_1344
*538 FILLER_105_1348
*539 FILLER_105_1351
*540 FILLER_105_137
*541 FILLER_105_141
*542 FILLER_105_1415
*543 FILLER_105_1419
*544 FILLER_105_1422
*545 FILLER_105_144
*546 FILLER_105_1486
*547 FILLER_105_1490
*548 FILLER_105_1493
*549 FILLER_105_1557
*550 FILLER_105_1561
*551 FILLER_105_1564
*552 FILLER_105_1580
*553 FILLER_105_2
*554 FILLER_105_208
*555 FILLER_105_212
*556 FILLER_105_215
*557 FILLER_105_279
*558 FILLER_105_283
*559 FILLER_105_286
*560 FILLER_105_350
*561 FILLER_105_354
*562 FILLER_105_357
*563 FILLER_105_421
*564 FILLER_105_425
*565 FILLER_105_428
*566 FILLER_105_492
*567 FILLER_105_496
*568 FILLER_105_499
*569 FILLER_105_563
*570 FILLER_105_567
*571 FILLER_105_570
*572 FILLER_105_634
*573 FILLER_105_638
*574 FILLER_105_641
*575 FILLER_105_66
*576 FILLER_105_70
*577 FILLER_105_705
*578 FILLER_105_709
*579 FILLER_105_712
*580 FILLER_105_73
*581 FILLER_105_776
*582 FILLER_105_780
*583 FILLER_105_783
*584 FILLER_105_847
*585 FILLER_105_851
*586 FILLER_105_854
*587 FILLER_105_918
*588 FILLER_105_922
*589 FILLER_105_925
*590 FILLER_105_989
*591 FILLER_105_993
*592 FILLER_105_996
*593 FILLER_106_101
*594 FILLER_106_1024
*595 FILLER_106_1028
*596 FILLER_106_1031
*597 FILLER_106_105
*598 FILLER_106_108
*599 FILLER_106_1095
*600 FILLER_106_1099
*601 FILLER_106_1102
*602 FILLER_106_1166
*603 FILLER_106_1170
*604 FILLER_106_1173
*605 FILLER_106_1237
*606 FILLER_106_1241
*607 FILLER_106_1244
*608 FILLER_106_1308
*609 FILLER_106_1312
*610 FILLER_106_1315
*611 FILLER_106_1379
*612 FILLER_106_1383
*613 FILLER_106_1386
*614 FILLER_106_1450
*615 FILLER_106_1454
*616 FILLER_106_1457
*617 FILLER_106_1521
*618 FILLER_106_1525
*619 FILLER_106_1528
*620 FILLER_106_1560
*621 FILLER_106_1576
*622 FILLER_106_1580
*623 FILLER_106_172
*624 FILLER_106_176
*625 FILLER_106_179
*626 FILLER_106_2
*627 FILLER_106_243
*628 FILLER_106_247
*629 FILLER_106_250
*630 FILLER_106_314
*631 FILLER_106_318
*632 FILLER_106_321
*633 FILLER_106_34
*634 FILLER_106_37
*635 FILLER_106_385
*636 FILLER_106_389
*637 FILLER_106_392
*638 FILLER_106_456
*639 FILLER_106_460
*640 FILLER_106_463
*641 FILLER_106_527
*642 FILLER_106_531
*643 FILLER_106_534
*644 FILLER_106_598
*645 FILLER_106_602
*646 FILLER_106_605
*647 FILLER_106_669
*648 FILLER_106_673
*649 FILLER_106_676
*650 FILLER_106_740
*651 FILLER_106_744
*652 FILLER_106_747
*653 FILLER_106_811
*654 FILLER_106_815
*655 FILLER_106_818
*656 FILLER_106_882
*657 FILLER_106_886
*658 FILLER_106_889
*659 FILLER_106_953
*660 FILLER_106_957
*661 FILLER_106_960
*662 FILLER_107_1060
*663 FILLER_107_1064
*664 FILLER_107_1067
*665 FILLER_107_1131
*666 FILLER_107_1135
*667 FILLER_107_1138
*668 FILLER_107_1202
*669 FILLER_107_1206
*670 FILLER_107_1209
*671 FILLER_107_1273
*672 FILLER_107_1277
*673 FILLER_107_1280
*674 FILLER_107_1344
*675 FILLER_107_1348
*676 FILLER_107_1351
*677 FILLER_107_137
*678 FILLER_107_141
*679 FILLER_107_1415
*680 FILLER_107_1419
*681 FILLER_107_1422
*682 FILLER_107_144
*683 FILLER_107_1486
*684 FILLER_107_1490
*685 FILLER_107_1493
*686 FILLER_107_1557
*687 FILLER_107_1561
*688 FILLER_107_1564
*689 FILLER_107_1580
*690 FILLER_107_2
*691 FILLER_107_208
*692 FILLER_107_212
*693 FILLER_107_215
*694 FILLER_107_279
*695 FILLER_107_283
*696 FILLER_107_286
*697 FILLER_107_350
*698 FILLER_107_354
*699 FILLER_107_357
*700 FILLER_107_421
*701 FILLER_107_425
*702 FILLER_107_428
*703 FILLER_107_492
*704 FILLER_107_496
*705 FILLER_107_499
*706 FILLER_107_563
*707 FILLER_107_567
*708 FILLER_107_570
*709 FILLER_107_634
*710 FILLER_107_638
*711 FILLER_107_641
*712 FILLER_107_66
*713 FILLER_107_70
*714 FILLER_107_705
*715 FILLER_107_709
*716 FILLER_107_712
*717 FILLER_107_73
*718 FILLER_107_776
*719 FILLER_107_780
*720 FILLER_107_783
*721 FILLER_107_847
*722 FILLER_107_851
*723 FILLER_107_854
*724 FILLER_107_918
*725 FILLER_107_922
*726 FILLER_107_925
*727 FILLER_107_989
*728 FILLER_107_993
*729 FILLER_107_996
*730 FILLER_108_101
*731 FILLER_108_1024
*732 FILLER_108_1028
*733 FILLER_108_1031
*734 FILLER_108_105
*735 FILLER_108_108
*736 FILLER_108_1095
*737 FILLER_108_1099
*738 FILLER_108_1102
*739 FILLER_108_1166
*740 FILLER_108_1170
*741 FILLER_108_1173
*742 FILLER_108_1237
*743 FILLER_108_1241
*744 FILLER_108_1244
*745 FILLER_108_1308
*746 FILLER_108_1312
*747 FILLER_108_1315
*748 FILLER_108_1379
*749 FILLER_108_1383
*750 FILLER_108_1386
*751 FILLER_108_1450
*752 FILLER_108_1454
*753 FILLER_108_1457
*754 FILLER_108_1521
*755 FILLER_108_1525
*756 FILLER_108_1528
*757 FILLER_108_1560
*758 FILLER_108_1576
*759 FILLER_108_1580
*760 FILLER_108_172
*761 FILLER_108_176
*762 FILLER_108_179
*763 FILLER_108_2
*764 FILLER_108_243
*765 FILLER_108_247
*766 FILLER_108_250
*767 FILLER_108_314
*768 FILLER_108_318
*769 FILLER_108_321
*770 FILLER_108_34
*771 FILLER_108_37
*772 FILLER_108_385
*773 FILLER_108_389
*774 FILLER_108_392
*775 FILLER_108_456
*776 FILLER_108_460
*777 FILLER_108_463
*778 FILLER_108_527
*779 FILLER_108_531
*780 FILLER_108_534
*781 FILLER_108_598
*782 FILLER_108_602
*783 FILLER_108_605
*784 FILLER_108_669
*785 FILLER_108_673
*786 FILLER_108_676
*787 FILLER_108_740
*788 FILLER_108_744
*789 FILLER_108_747
*790 FILLER_108_811
*791 FILLER_108_815
*792 FILLER_108_818
*793 FILLER_108_882
*794 FILLER_108_886
*795 FILLER_108_889
*796 FILLER_108_953
*797 FILLER_108_957
*798 FILLER_108_960
*799 FILLER_109_1060
*800 FILLER_109_1064
*801 FILLER_109_1067
*802 FILLER_109_1131
*803 FILLER_109_1135
*804 FILLER_109_1138
*805 FILLER_109_1202
*806 FILLER_109_1206
*807 FILLER_109_1209
*808 FILLER_109_1273
*809 FILLER_109_1277
*810 FILLER_109_1280
*811 FILLER_109_1344
*812 FILLER_109_1348
*813 FILLER_109_1351
*814 FILLER_109_137
*815 FILLER_109_141
*816 FILLER_109_1415
*817 FILLER_109_1419
*818 FILLER_109_1422
*819 FILLER_109_144
*820 FILLER_109_1486
*821 FILLER_109_1490
*822 FILLER_109_1493
*823 FILLER_109_1557
*824 FILLER_109_1561
*825 FILLER_109_1564
*826 FILLER_109_1580
*827 FILLER_109_2
*828 FILLER_109_208
*829 FILLER_109_212
*830 FILLER_109_215
*831 FILLER_109_279
*832 FILLER_109_283
*833 FILLER_109_286
*834 FILLER_109_350
*835 FILLER_109_354
*836 FILLER_109_357
*837 FILLER_109_421
*838 FILLER_109_425
*839 FILLER_109_428
*840 FILLER_109_492
*841 FILLER_109_496
*842 FILLER_109_499
*843 FILLER_109_563
*844 FILLER_109_567
*845 FILLER_109_570
*846 FILLER_109_634
*847 FILLER_109_638
*848 FILLER_109_641
*849 FILLER_109_66
*850 FILLER_109_70
*851 FILLER_109_705
*852 FILLER_109_709
*853 FILLER_109_712
*854 FILLER_109_73
*855 FILLER_109_776
*856 FILLER_109_780
*857 FILLER_109_783
*858 FILLER_109_847
*859 FILLER_109_851
*860 FILLER_109_854
*861 FILLER_109_918
*862 FILLER_109_922
*863 FILLER_109_925
*864 FILLER_109_989
*865 FILLER_109_993
*866 FILLER_109_996
*867 FILLER_10_101
*868 FILLER_10_1024
*869 FILLER_10_1028
*870 FILLER_10_1031
*871 FILLER_10_105
*872 FILLER_10_108
*873 FILLER_10_1095
*874 FILLER_10_1099
*875 FILLER_10_1102
*876 FILLER_10_1166
*877 FILLER_10_1170
*878 FILLER_10_1173
*879 FILLER_10_1237
*880 FILLER_10_1241
*881 FILLER_10_1244
*882 FILLER_10_1308
*883 FILLER_10_1312
*884 FILLER_10_1315
*885 FILLER_10_1379
*886 FILLER_10_1383
*887 FILLER_10_1386
*888 FILLER_10_1450
*889 FILLER_10_1454
*890 FILLER_10_1457
*891 FILLER_10_1521
*892 FILLER_10_1525
*893 FILLER_10_1528
*894 FILLER_10_1560
*895 FILLER_10_1576
*896 FILLER_10_1580
*897 FILLER_10_172
*898 FILLER_10_176
*899 FILLER_10_179
*900 FILLER_10_2
*901 FILLER_10_243
*902 FILLER_10_247
*903 FILLER_10_250
*904 FILLER_10_314
*905 FILLER_10_318
*906 FILLER_10_321
*907 FILLER_10_34
*908 FILLER_10_37
*909 FILLER_10_385
*910 FILLER_10_389
*911 FILLER_10_392
*912 FILLER_10_456
*913 FILLER_10_460
*914 FILLER_10_463
*915 FILLER_10_527
*916 FILLER_10_531
*917 FILLER_10_534
*918 FILLER_10_598
*919 FILLER_10_602
*920 FILLER_10_605
*921 FILLER_10_669
*922 FILLER_10_673
*923 FILLER_10_676
*924 FILLER_10_740
*925 FILLER_10_744
*926 FILLER_10_747
*927 FILLER_10_811
*928 FILLER_10_815
*929 FILLER_10_818
*930 FILLER_10_882
*931 FILLER_10_886
*932 FILLER_10_889
*933 FILLER_10_953
*934 FILLER_10_957
*935 FILLER_10_960
*936 FILLER_110_101
*937 FILLER_110_1024
*938 FILLER_110_1028
*939 FILLER_110_1031
*940 FILLER_110_105
*941 FILLER_110_108
*942 FILLER_110_1095
*943 FILLER_110_1099
*944 FILLER_110_1102
*945 FILLER_110_1166
*946 FILLER_110_1170
*947 FILLER_110_1173
*948 FILLER_110_1237
*949 FILLER_110_1241
*950 FILLER_110_1244
*951 FILLER_110_1308
*952 FILLER_110_1312
*953 FILLER_110_1315
*954 FILLER_110_1379
*955 FILLER_110_1383
*956 FILLER_110_1386
*957 FILLER_110_1450
*958 FILLER_110_1454
*959 FILLER_110_1457
*960 FILLER_110_1521
*961 FILLER_110_1525
*962 FILLER_110_1528
*963 FILLER_110_1560
*964 FILLER_110_1576
*965 FILLER_110_1580
*966 FILLER_110_172
*967 FILLER_110_176
*968 FILLER_110_179
*969 FILLER_110_2
*970 FILLER_110_243
*971 FILLER_110_247
*972 FILLER_110_250
*973 FILLER_110_314
*974 FILLER_110_318
*975 FILLER_110_321
*976 FILLER_110_34
*977 FILLER_110_37
*978 FILLER_110_385
*979 FILLER_110_389
*980 FILLER_110_392
*981 FILLER_110_456
*982 FILLER_110_460
*983 FILLER_110_463
*984 FILLER_110_527
*985 FILLER_110_531
*986 FILLER_110_534
*987 FILLER_110_598
*988 FILLER_110_602
*989 FILLER_110_605
*990 FILLER_110_669
*991 FILLER_110_673
*992 FILLER_110_676
*993 FILLER_110_740
*994 FILLER_110_744
*995 FILLER_110_747
*996 FILLER_110_811
*997 FILLER_110_815
*998 FILLER_110_818
*999 FILLER_110_882
*1000 FILLER_110_886
*1001 FILLER_110_889
*1002 FILLER_110_953
*1003 FILLER_110_957
*1004 FILLER_110_960
*1005 FILLER_111_1060
*1006 FILLER_111_1064
*1007 FILLER_111_1067
*1008 FILLER_111_1131
*1009 FILLER_111_1135
*1010 FILLER_111_1138
*1011 FILLER_111_1202
*1012 FILLER_111_1206
*1013 FILLER_111_1209
*1014 FILLER_111_1273
*1015 FILLER_111_1277
*1016 FILLER_111_1280
*1017 FILLER_111_1344
*1018 FILLER_111_1348
*1019 FILLER_111_1351
*1020 FILLER_111_137
*1021 FILLER_111_141
*1022 FILLER_111_1415
*1023 FILLER_111_1419
*1024 FILLER_111_1422
*1025 FILLER_111_144
*1026 FILLER_111_1486
*1027 FILLER_111_1490
*1028 FILLER_111_1493
*1029 FILLER_111_1557
*1030 FILLER_111_1561
*1031 FILLER_111_1564
*1032 FILLER_111_1580
*1033 FILLER_111_2
*1034 FILLER_111_208
*1035 FILLER_111_212
*1036 FILLER_111_215
*1037 FILLER_111_279
*1038 FILLER_111_283
*1039 FILLER_111_286
*1040 FILLER_111_350
*1041 FILLER_111_354
*1042 FILLER_111_357
*1043 FILLER_111_421
*1044 FILLER_111_425
*1045 FILLER_111_428
*1046 FILLER_111_492
*1047 FILLER_111_496
*1048 FILLER_111_499
*1049 FILLER_111_563
*1050 FILLER_111_567
*1051 FILLER_111_570
*1052 FILLER_111_634
*1053 FILLER_111_638
*1054 FILLER_111_641
*1055 FILLER_111_66
*1056 FILLER_111_70
*1057 FILLER_111_705
*1058 FILLER_111_709
*1059 FILLER_111_712
*1060 FILLER_111_73
*1061 FILLER_111_776
*1062 FILLER_111_780
*1063 FILLER_111_783
*1064 FILLER_111_847
*1065 FILLER_111_851
*1066 FILLER_111_854
*1067 FILLER_111_918
*1068 FILLER_111_922
*1069 FILLER_111_925
*1070 FILLER_111_989
*1071 FILLER_111_993
*1072 FILLER_111_996
*1073 FILLER_112_101
*1074 FILLER_112_1024
*1075 FILLER_112_1028
*1076 FILLER_112_1031
*1077 FILLER_112_105
*1078 FILLER_112_108
*1079 FILLER_112_1095
*1080 FILLER_112_1099
*1081 FILLER_112_1102
*1082 FILLER_112_1166
*1083 FILLER_112_1170
*1084 FILLER_112_1173
*1085 FILLER_112_1237
*1086 FILLER_112_1241
*1087 FILLER_112_1244
*1088 FILLER_112_1308
*1089 FILLER_112_1312
*1090 FILLER_112_1315
*1091 FILLER_112_1379
*1092 FILLER_112_1383
*1093 FILLER_112_1386
*1094 FILLER_112_1450
*1095 FILLER_112_1454
*1096 FILLER_112_1457
*1097 FILLER_112_1521
*1098 FILLER_112_1525
*1099 FILLER_112_1528
*1100 FILLER_112_1560
*1101 FILLER_112_1576
*1102 FILLER_112_1580
*1103 FILLER_112_172
*1104 FILLER_112_176
*1105 FILLER_112_179
*1106 FILLER_112_2
*1107 FILLER_112_243
*1108 FILLER_112_247
*1109 FILLER_112_250
*1110 FILLER_112_314
*1111 FILLER_112_318
*1112 FILLER_112_321
*1113 FILLER_112_34
*1114 FILLER_112_37
*1115 FILLER_112_385
*1116 FILLER_112_389
*1117 FILLER_112_392
*1118 FILLER_112_456
*1119 FILLER_112_460
*1120 FILLER_112_463
*1121 FILLER_112_527
*1122 FILLER_112_531
*1123 FILLER_112_534
*1124 FILLER_112_598
*1125 FILLER_112_602
*1126 FILLER_112_605
*1127 FILLER_112_669
*1128 FILLER_112_673
*1129 FILLER_112_676
*1130 FILLER_112_740
*1131 FILLER_112_744
*1132 FILLER_112_747
*1133 FILLER_112_811
*1134 FILLER_112_815
*1135 FILLER_112_818
*1136 FILLER_112_882
*1137 FILLER_112_886
*1138 FILLER_112_889
*1139 FILLER_112_953
*1140 FILLER_112_957
*1141 FILLER_112_960
*1142 FILLER_113_1060
*1143 FILLER_113_1064
*1144 FILLER_113_1067
*1145 FILLER_113_1131
*1146 FILLER_113_1135
*1147 FILLER_113_1138
*1148 FILLER_113_1202
*1149 FILLER_113_1206
*1150 FILLER_113_1209
*1151 FILLER_113_1273
*1152 FILLER_113_1277
*1153 FILLER_113_1280
*1154 FILLER_113_1344
*1155 FILLER_113_1348
*1156 FILLER_113_1351
*1157 FILLER_113_137
*1158 FILLER_113_141
*1159 FILLER_113_1415
*1160 FILLER_113_1419
*1161 FILLER_113_1422
*1162 FILLER_113_144
*1163 FILLER_113_1486
*1164 FILLER_113_1490
*1165 FILLER_113_1493
*1166 FILLER_113_1557
*1167 FILLER_113_1561
*1168 FILLER_113_1564
*1169 FILLER_113_1580
*1170 FILLER_113_2
*1171 FILLER_113_208
*1172 FILLER_113_212
*1173 FILLER_113_215
*1174 FILLER_113_279
*1175 FILLER_113_283
*1176 FILLER_113_286
*1177 FILLER_113_350
*1178 FILLER_113_354
*1179 FILLER_113_357
*1180 FILLER_113_421
*1181 FILLER_113_425
*1182 FILLER_113_428
*1183 FILLER_113_492
*1184 FILLER_113_496
*1185 FILLER_113_499
*1186 FILLER_113_563
*1187 FILLER_113_567
*1188 FILLER_113_570
*1189 FILLER_113_634
*1190 FILLER_113_638
*1191 FILLER_113_641
*1192 FILLER_113_66
*1193 FILLER_113_70
*1194 FILLER_113_705
*1195 FILLER_113_709
*1196 FILLER_113_712
*1197 FILLER_113_73
*1198 FILLER_113_776
*1199 FILLER_113_780
*1200 FILLER_113_783
*1201 FILLER_113_847
*1202 FILLER_113_851
*1203 FILLER_113_854
*1204 FILLER_113_918
*1205 FILLER_113_922
*1206 FILLER_113_925
*1207 FILLER_113_989
*1208 FILLER_113_993
*1209 FILLER_113_996
*1210 FILLER_114_101
*1211 FILLER_114_1024
*1212 FILLER_114_1028
*1213 FILLER_114_1031
*1214 FILLER_114_105
*1215 FILLER_114_108
*1216 FILLER_114_1095
*1217 FILLER_114_1099
*1218 FILLER_114_1102
*1219 FILLER_114_1166
*1220 FILLER_114_1170
*1221 FILLER_114_1173
*1222 FILLER_114_1237
*1223 FILLER_114_1241
*1224 FILLER_114_1244
*1225 FILLER_114_1308
*1226 FILLER_114_1312
*1227 FILLER_114_1315
*1228 FILLER_114_1379
*1229 FILLER_114_1383
*1230 FILLER_114_1386
*1231 FILLER_114_1450
*1232 FILLER_114_1454
*1233 FILLER_114_1457
*1234 FILLER_114_1521
*1235 FILLER_114_1525
*1236 FILLER_114_1528
*1237 FILLER_114_1560
*1238 FILLER_114_1576
*1239 FILLER_114_1580
*1240 FILLER_114_172
*1241 FILLER_114_176
*1242 FILLER_114_179
*1243 FILLER_114_2
*1244 FILLER_114_243
*1245 FILLER_114_247
*1246 FILLER_114_250
*1247 FILLER_114_314
*1248 FILLER_114_318
*1249 FILLER_114_321
*1250 FILLER_114_34
*1251 FILLER_114_37
*1252 FILLER_114_385
*1253 FILLER_114_389
*1254 FILLER_114_392
*1255 FILLER_114_456
*1256 FILLER_114_460
*1257 FILLER_114_463
*1258 FILLER_114_527
*1259 FILLER_114_531
*1260 FILLER_114_534
*1261 FILLER_114_598
*1262 FILLER_114_602
*1263 FILLER_114_605
*1264 FILLER_114_669
*1265 FILLER_114_673
*1266 FILLER_114_676
*1267 FILLER_114_740
*1268 FILLER_114_744
*1269 FILLER_114_747
*1270 FILLER_114_811
*1271 FILLER_114_815
*1272 FILLER_114_818
*1273 FILLER_114_882
*1274 FILLER_114_886
*1275 FILLER_114_889
*1276 FILLER_114_953
*1277 FILLER_114_957
*1278 FILLER_114_960
*1279 FILLER_115_1060
*1280 FILLER_115_1064
*1281 FILLER_115_1067
*1282 FILLER_115_1131
*1283 FILLER_115_1135
*1284 FILLER_115_1138
*1285 FILLER_115_1202
*1286 FILLER_115_1206
*1287 FILLER_115_1209
*1288 FILLER_115_1273
*1289 FILLER_115_1277
*1290 FILLER_115_1280
*1291 FILLER_115_1344
*1292 FILLER_115_1348
*1293 FILLER_115_1351
*1294 FILLER_115_137
*1295 FILLER_115_141
*1296 FILLER_115_1415
*1297 FILLER_115_1419
*1298 FILLER_115_1422
*1299 FILLER_115_144
*1300 FILLER_115_1486
*1301 FILLER_115_1490
*1302 FILLER_115_1493
*1303 FILLER_115_1557
*1304 FILLER_115_1561
*1305 FILLER_115_1564
*1306 FILLER_115_1580
*1307 FILLER_115_2
*1308 FILLER_115_208
*1309 FILLER_115_212
*1310 FILLER_115_215
*1311 FILLER_115_279
*1312 FILLER_115_283
*1313 FILLER_115_286
*1314 FILLER_115_350
*1315 FILLER_115_354
*1316 FILLER_115_357
*1317 FILLER_115_421
*1318 FILLER_115_425
*1319 FILLER_115_428
*1320 FILLER_115_492
*1321 FILLER_115_496
*1322 FILLER_115_499
*1323 FILLER_115_563
*1324 FILLER_115_567
*1325 FILLER_115_570
*1326 FILLER_115_634
*1327 FILLER_115_638
*1328 FILLER_115_641
*1329 FILLER_115_66
*1330 FILLER_115_70
*1331 FILLER_115_705
*1332 FILLER_115_709
*1333 FILLER_115_712
*1334 FILLER_115_73
*1335 FILLER_115_776
*1336 FILLER_115_780
*1337 FILLER_115_783
*1338 FILLER_115_847
*1339 FILLER_115_851
*1340 FILLER_115_854
*1341 FILLER_115_918
*1342 FILLER_115_922
*1343 FILLER_115_925
*1344 FILLER_115_989
*1345 FILLER_115_993
*1346 FILLER_115_996
*1347 FILLER_116_101
*1348 FILLER_116_1024
*1349 FILLER_116_1028
*1350 FILLER_116_1031
*1351 FILLER_116_105
*1352 FILLER_116_108
*1353 FILLER_116_1095
*1354 FILLER_116_1099
*1355 FILLER_116_1102
*1356 FILLER_116_1166
*1357 FILLER_116_1170
*1358 FILLER_116_1173
*1359 FILLER_116_1237
*1360 FILLER_116_1241
*1361 FILLER_116_1244
*1362 FILLER_116_1308
*1363 FILLER_116_1312
*1364 FILLER_116_1315
*1365 FILLER_116_1379
*1366 FILLER_116_1383
*1367 FILLER_116_1386
*1368 FILLER_116_1450
*1369 FILLER_116_1454
*1370 FILLER_116_1457
*1371 FILLER_116_1521
*1372 FILLER_116_1525
*1373 FILLER_116_1528
*1374 FILLER_116_1560
*1375 FILLER_116_1576
*1376 FILLER_116_1580
*1377 FILLER_116_172
*1378 FILLER_116_176
*1379 FILLER_116_179
*1380 FILLER_116_2
*1381 FILLER_116_243
*1382 FILLER_116_247
*1383 FILLER_116_250
*1384 FILLER_116_314
*1385 FILLER_116_318
*1386 FILLER_116_321
*1387 FILLER_116_34
*1388 FILLER_116_37
*1389 FILLER_116_385
*1390 FILLER_116_389
*1391 FILLER_116_392
*1392 FILLER_116_456
*1393 FILLER_116_460
*1394 FILLER_116_463
*1395 FILLER_116_527
*1396 FILLER_116_531
*1397 FILLER_116_534
*1398 FILLER_116_598
*1399 FILLER_116_602
*1400 FILLER_116_605
*1401 FILLER_116_669
*1402 FILLER_116_673
*1403 FILLER_116_676
*1404 FILLER_116_740
*1405 FILLER_116_744
*1406 FILLER_116_747
*1407 FILLER_116_811
*1408 FILLER_116_815
*1409 FILLER_116_818
*1410 FILLER_116_882
*1411 FILLER_116_886
*1412 FILLER_116_889
*1413 FILLER_116_953
*1414 FILLER_116_957
*1415 FILLER_116_960
*1416 FILLER_117_1060
*1417 FILLER_117_1064
*1418 FILLER_117_1067
*1419 FILLER_117_1131
*1420 FILLER_117_1135
*1421 FILLER_117_1138
*1422 FILLER_117_1202
*1423 FILLER_117_1206
*1424 FILLER_117_1209
*1425 FILLER_117_1273
*1426 FILLER_117_1277
*1427 FILLER_117_1280
*1428 FILLER_117_1344
*1429 FILLER_117_1348
*1430 FILLER_117_1351
*1431 FILLER_117_137
*1432 FILLER_117_141
*1433 FILLER_117_1415
*1434 FILLER_117_1419
*1435 FILLER_117_1422
*1436 FILLER_117_144
*1437 FILLER_117_1486
*1438 FILLER_117_1490
*1439 FILLER_117_1493
*1440 FILLER_117_1557
*1441 FILLER_117_1561
*1442 FILLER_117_1564
*1443 FILLER_117_1580
*1444 FILLER_117_2
*1445 FILLER_117_208
*1446 FILLER_117_212
*1447 FILLER_117_215
*1448 FILLER_117_279
*1449 FILLER_117_283
*1450 FILLER_117_286
*1451 FILLER_117_350
*1452 FILLER_117_354
*1453 FILLER_117_357
*1454 FILLER_117_421
*1455 FILLER_117_425
*1456 FILLER_117_428
*1457 FILLER_117_492
*1458 FILLER_117_496
*1459 FILLER_117_499
*1460 FILLER_117_563
*1461 FILLER_117_567
*1462 FILLER_117_570
*1463 FILLER_117_634
*1464 FILLER_117_638
*1465 FILLER_117_641
*1466 FILLER_117_66
*1467 FILLER_117_70
*1468 FILLER_117_705
*1469 FILLER_117_709
*1470 FILLER_117_712
*1471 FILLER_117_73
*1472 FILLER_117_776
*1473 FILLER_117_780
*1474 FILLER_117_783
*1475 FILLER_117_847
*1476 FILLER_117_851
*1477 FILLER_117_854
*1478 FILLER_117_918
*1479 FILLER_117_922
*1480 FILLER_117_925
*1481 FILLER_117_989